powerflow/autotest/test_ZIPLoad_Delta_NR.glm
//  2 bus simple system
// Tests, that base_power, current_fraction and impedance_fraction work when phasing includes D

// Derived from test_ZIPLoad_ZeroBase_NR.glm except for load:node2 phases
// The assertion criteria had to be loosened from 0.1, because for constant-current loads,
//  the line-to-line current angle rotation is referenced to fixed baseangles in load.cpp.
//  With unbalance in the system, the correct rotation is not exactly +30 degrees.

clock {
	timezone "PST+8PDT";
	starttime '2001-01-01 00:00:00 PST';
	stoptime '2001-01-01 00:01:00 PST';
	
}

#set suppress_repeat_messages=1
#set double_format=%+.12lg
#set complex_format=%+.12lg%+.12lg%c

module assert;
module tape;

module powerflow {
	solver_method NR;
}

class player {
	double value;
}

//Player, for transform
object player {
	name base_power_player;
	file ../data_ZIP_test_base_power.csv;
}

// Phase Conductor for 601: 556,500 26/7 ACSR
object overhead_line_conductor {
	name olc6010;
	geometric_mean_radius 0.031300;
	diameter 0.927 in;
	resistance 0.185900;
}

// Phase Conductor for 602: 4/0 6/1 ACSR
object overhead_line_conductor {
	name olc6020;
	geometric_mean_radius 0.00814;
	diameter 0.56 in;
	resistance 0.592000;
}


// Overhead line configurations
object line_spacing {
	name ls500601;	//With capacitance ability
	distance_AB 2.5;
	distance_AC 4.5;
	distance_BC 7.0;
	distance_BN 5.656854;
	distance_AN 4.272002;
	distance_CN 5.0;
	distance_AE 28.0;
	distance_BE 28.0;
	distance_CE 28.0;
	distance_NE 24.0;
}

object line_configuration {
	name lc601;
	conductor_A olc6010;
	conductor_B olc6010;
	conductor_C olc6010;
	conductor_N olc6020;
	spacing ls500601;
}

object transformer_configuration {
    name "triplex_xformer_cfg";
    connect_type SINGLE_PHASE_CENTER_TAPPED;
    install_type POLETOP;
    primary_voltage 7200.0V;
    secondary_voltage 120.0V;
    power_rating 150.0kVA;
    powerB_rating 150.0kVA;
    impedance 0.006000+0.013600j;
    impedance1 0.012000+0.006800j;
    impedance2 0.012000+0.006800j;
    shunt_impedance 1728000+691200j;
}

object overhead_line {
	phases "ABCN";
	name node1_to_node2;
	from node1;
	to node2;
	length 10.0 mile; //15.0 mile;
	configuration lc601;
}

object transformer {
	phases BS;
	from node1;
	to tpl_load2;
	configuration triplex_xformer_cfg;
}

object meter {
	name node1;
	phases "ABCN";
	bustype SWING;
	voltage_A 2401.7771;
	voltage_B -1200.8886-2080.000j;
	voltage_C -1200.8886+2080.000j;
	nominal_voltage 2401.7771;
	// object recorder {
		// property "measured_power_A,measured_power_B,measured_power_C";
		// interval -1;
		// file measured_power_out.csv;
	// };
	object complex_assert {
		target measured_power_A;
		object player {
			property value;
			file ../data_zip_measload_phaseA.csv;
		};
		within 0.3; // can not meet 0.1;
	};
	object complex_assert {
		target measured_power_B;
		object player {
			property value;
			file ../data_zip_measload_phaseB.csv;
		};
		within 0.5; // can not meet 0.1;
	};
	object complex_assert {
		target measured_power_C;
		object player {
			property value;
			file ../data_zip_measload_phaseC.csv;
		};
		within 0.3; // can not meet 0.1;
	};
}

object load {
	name node2;
	phases ABCD; // this phasing is the only difference of input from test_ZIPLoad_ZeroBase_NR.glm
	nominal_voltage 2401.7771;
	base_power_A base_power_player.value*1.0;
	base_power_B base_power_player.value*1.0;
	base_power_C base_power_player.value*1.0;
	power_pf_A 0.8;
	current_pf_A 0.75;
	impedance_pf_A 0.6;
	power_pf_B 0.8;
	current_pf_B 0.75;
	impedance_pf_B 0.6;
	power_pf_C 0.8;
	current_pf_C 0.75;
	impedance_pf_C 0.6;
	power_fraction_A 0.5;
	current_fraction_A 0.25;
	impedance_fraction_A 0.25;
	power_fraction_B 0.5;
	current_fraction_B 0.25;
	impedance_fraction_B 0.25;
	power_fraction_C 0.5;
	current_fraction_C 0.25;
	impedance_fraction_C 0.25;
}

object triplex_load {
	name tpl_load2;
	phases BS;
	nominal_voltage 120.0;
	base_power_1 base_power_player.value*1.0;
	base_power_2 base_power_player.value*1.0;
	base_power_12 base_power_player.value*1.0;
	power_pf_1 0.8;
	current_pf_1 0.75;
	impedance_pf_1 0.6;
	power_pf_2 0.8;
	current_pf_2 0.75;
	impedance_pf_2 0.6;
	power_pf_12 0.8;
	current_pf_12 0.75;
	impedance_pf_12 0.6;
	power_fraction_1 0.5;
	current_fraction_1 0.25;
	impedance_fraction_1 0.25;
	power_fraction_2 0.5;
	current_fraction_2 0.25;
	impedance_fraction_2 0.25;
	power_fraction_12 0.5;
	current_fraction_12 0.25;
	impedance_fraction_12 0.25;
}
